/*--------------------------------*- C++ -*----------------------------------*\
| =========                 |                                                 |
| \\      /  F ield         | OpenFOAM: The Open Source CFD Toolbox           |
|  \\    /   O peration     | Version:  2206                                  |
|   \\  /    A nd           | Website:  www.openfoam.com                      |
|    \\/     M anipulation  |                                                 |
\*---------------------------------------------------------------------------*/
FoamFile
{
    version     2.0;
    format      ascii;
    arch        "LSB;label=32;scalar=64";
    class       featureEdgeMesh;
    location    "constant/triSurface";
    object      prop.eMesh;
}
// * * * * * * * * * * * * * * * * * * * * * * * * * * * * * * * * * * * * * //


// points:

222
(
(4.352234 2.323674 4.537981)
(4.375421 2.341268 4.62078)
(4.386364 2.360176 4.661619)
(4.37752 2.363341 4.631668)
(4.386527 2.349137 4.660346)
(4.390105 2.358033 4.674151)
(4.391447 2.354647 4.67821)
(4.391564 2.355197 4.678707)
(4.391581 2.355557 4.678823)
(4.391578 2.355624 4.678823)
(4.391535 2.355957 4.67873)
(4.391376 2.356461 4.678266)
(4.361591 2.369779 4.577857)
(4.337043 2.378585 4.494742)
(4.303646 2.291951 4.365328)
(4.285567 2.393045 4.319794)
(4.257949 2.267705 4.203874)
(4.238798 2.400484 4.159894)
(4.221442 2.253907 4.075815)
(4.206778 2.400806 4.04963)
(4.191872 2.248304 3.973011)
(4.180084 2.396346 3.956928)
(4.168249 2.249241 3.891778)
(4.162406 2.389777 3.894934)
(4.151282 2.254412 3.834183)
(4.145529 2.379286 3.835047)
(4.146812 2.256677 3.819156)
(4.133823 2.266412 3.776018)
(4.132799 2.366745 3.789112)
(4.128559 2.272435 3.758878)
(4.116329 2.330929 3.726434)
(4.11503 2.318777 3.719949)
(4.115342 2.307778 3.719198)
(4.124086 2.35353 3.756907)
(4.118834 2.34115 3.73676)
(4.121726 2.283603 3.73719)
(4.117552 2.295483 3.724777)
(2.281774 2.223334 4.570642)
(2.290121 2.229668 4.60045)
(2.294061 2.236475 4.615151)
(2.290877 2.237614 4.60437)
(2.294119 2.2325 4.614694)
(2.295408 2.235703 4.619664)
(2.295891 2.234484 4.621124)
(2.295933 2.234682 4.621304)
(2.295939 2.234812 4.621345)
(2.295938 2.234836 4.621346)
(2.295922 2.234956 4.621312)
(2.295865 2.235137 4.621144)
(2.285143 2.239932 4.584998)
(2.276305 2.243102 4.555076)
(2.264282 2.211914 4.508487)
(2.257774 2.248308 4.492095)
(2.247831 2.203185 4.450364)
(2.240937 2.250986 4.43453)
(2.234689 2.198218 4.404263)
(2.22941 2.251101 4.394835)
(2.224044 2.1962 4.367252)
(2.2198 2.249496 4.361463)
(2.215539 2.196538 4.33801)
(2.213436 2.247131 4.339146)
(2.209432 2.1984 4.317275)
(2.20736 2.243354 4.317585)
(2.207822 2.199215 4.311865)
(2.203146 2.20272 4.296335)
(2.202777 2.23884 4.301049)
(2.201251 2.204888 4.290164)
(2.196848 2.225946 4.278485)
(2.196381 2.221571 4.276151)
(2.196493 2.217611 4.27588)
(2.199641 2.234082 4.289455)
(2.19775 2.229625 4.282203)
(2.198791 2.208908 4.282357)
(2.197289 2.213185 4.277888)
(4.890021 2.323674 3.104187)
(4.806722 2.341268 3.082868)
(4.765882 2.360176 3.071928)
(4.796244 2.363341 3.079242)
(4.766905 2.349137 3.072703)
(4.753158 2.358033 3.0689)
(4.748973 2.354647 3.068033)
(4.748484 2.355197 3.067885)
(4.748376 2.355557 3.067842)
(4.748377 2.355624 3.067838)
(4.748479 2.355957 3.067848)
(4.74896 2.356461 3.067942)
(4.850809 2.369779 3.092352)
(4.935062 2.378585 3.11265)
(5.063838 2.291951 3.148435)
(5.11231 2.393045 3.155546)
(5.226509 2.267705 3.189587)
(5.274173 2.400484 3.194993)
(5.355663 2.253907 3.222001)
(5.385673 2.400806 3.222394)
(5.459481 2.248304 3.247795)
(5.479303 2.396346 3.245628)
(5.541641 2.249241 3.267952)
(5.54183 2.389777 3.261315)
(5.600003 2.254412 3.282058)
(5.602133 2.379286 3.276642)
(5.615252 2.256677 3.285699)
(5.659105 2.266412 3.296019)
(5.648277 2.366745 3.288585)
(5.676581 2.272435 3.30003)
(5.710793 2.330929 3.30566)
(5.71706 2.318777 3.307779)
(5.717554 2.307778 3.308424)
(5.680524 2.35353 3.297143)
(5.700599 2.34115 3.302667)
(5.698781 2.283603 3.304957)
(5.711617 2.295483 3.307549)
(5.896966 2.223334 1.294786)
(5.866978 2.229668 1.287112)
(5.852276 2.236475 1.283173)
(5.863206 2.237614 1.285806)
(5.852643 2.2325 1.283452)
(5.847694 2.235703 1.282083)
(5.846189 2.234484 1.281771)
(5.846013 2.234682 1.281718)
(5.845973 2.234812 1.281702)
(5.845973 2.234836 1.281701)
(5.846011 2.234956 1.281705)
(5.846184 2.235137 1.281739)
(5.88285 2.239932 1.290525)
(5.91318 2.243102 1.297832)
(5.959539 2.211914 1.310716)
(5.97699 2.248308 1.313276)
(6.018102 2.203185 1.325531)
(6.035261 2.250986 1.327476)
(6.064598 2.198218 1.3372)
(6.0754 2.251101 1.337341)
(6.101972 2.1962 1.346485)
(6.109107 2.249496 1.345705)
(6.13155 2.196538 1.353742)
(6.131617 2.247131 1.351353)
(6.152559 2.1984 1.358819)
(6.153326 2.243354 1.35687)
(6.158049 2.199215 1.360131)
(6.173837 2.20272 1.363846)
(6.169939 2.23884 1.36117)
(6.180128 2.204888 1.36529)
(6.192443 2.225946 1.367317)
(6.1947 2.221571 1.36808)
(6.194878 2.217611 1.368312)
(6.181547 2.234082 1.36425)
(6.188774 2.229625 1.366239)
(6.188119 2.208908 1.367064)
(6.19274 2.213185 1.367997)
(5.86283 2.323674 4.286821)
(5.922942 2.341268 4.225341)
(5.952837 2.360176 4.195444)
(5.931322 2.363341 4.218081)
(5.951653 2.349137 4.195941)
(5.961821 2.358033 4.185937)
(5.964664 2.354647 4.182747)
(5.965035 2.355197 4.182397)
(5.965127 2.355557 4.182325)
(5.965131 2.355624 4.182327)
(5.965072 2.355957 4.182411)
(5.964748 2.356461 4.182781)
(5.892685 2.369779 4.25878)
(5.832978 2.378585 4.321597)
(5.737601 2.291951 4.415226)
(5.707207 2.393045 4.45365)
(5.620626 2.267705 4.535529)
(5.592113 2.400484 4.574104)
(5.527979 2.253907 4.631173)
(5.512633 2.400806 4.656965)
(5.453732 2.248304 4.708185)
(5.445697 2.396346 4.726435)
(5.395194 2.249241 4.769258)
(5.400848 2.389777 4.77274)
(5.353798 2.254412 4.812749)
(5.357424 2.379286 4.817301)
(5.343019 2.256677 4.824135)
(5.312156 2.266412 4.856952)
(5.324008 2.366745 4.851293)
(5.299945 2.272435 4.870081)
(5.277963 2.330929 4.896894)
(5.272995 2.318777 4.901262)
(5.27219 2.307778 4.901368)
(5.300474 2.35353 4.874939)
(5.285652 2.34115 4.889563)
(5.284577 2.283603 4.886843)
(5.275915 2.295483 4.896665)
(6.926344 2.223334 6.063562)
(6.947985 2.229668 6.041429)
(6.958746 2.236475 6.030666)
(6.951002 2.237614 6.038815)
(6.958321 2.2325 6.030845)
(6.961982 2.235703 6.027244)
(6.963006 2.234484 6.026095)
(6.963139 2.234682 6.02597)
(6.963171 2.234812 6.025943)
(6.963172 2.234836 6.025944)
(6.963151 2.234956 6.025974)
(6.963036 2.235137 6.026107)
(6.937093 2.239932 6.053467)
(6.915598 2.243102 6.076081)
(6.881263 2.211914 6.109788)
(6.870321 2.248308 6.123621)
(6.839151 2.203185 6.153097)
(6.828887 2.250986 6.166984)
(6.805798 2.198218 6.187529)
(6.800273 2.251101 6.196814)
(6.779068 2.1962 6.215252)
(6.776176 2.249496 6.221823)
(6.757996 2.196538 6.237239)
(6.760032 2.247131 6.238492)
(6.743093 2.1984 6.252896)
(6.744399 2.243354 6.254534)
(6.739213 2.199215 6.256994)
(6.728102 2.20272 6.268809)
(6.732368 2.23884 6.266771)
(6.723706 2.204888 6.273536)
(6.715793 2.225946 6.283188)
(6.714004 2.221571 6.28476)
(6.713714 2.217611 6.284799)
(6.723897 2.234082 6.275284)
(6.718561 2.229625 6.280549)
(6.718174 2.208908 6.27957)
(6.715055 2.213185 6.283105)
)


// edges:

222
(
(0 1)
(2 3)
(1 4)
(5 2)
(6 7)
(4 6)
(7 8)
(8 9)
(9 10)
(10 11)
(11 5)
(3 12)
(12 13)
(14 0)
(13 15)
(16 14)
(15 17)
(18 16)
(17 19)
(20 18)
(19 21)
(22 20)
(21 23)
(24 22)
(23 25)
(26 24)
(27 26)
(25 28)
(29 27)
(30 31)
(31 32)
(28 33)
(33 34)
(35 29)
(34 30)
(36 35)
(32 36)
(37 38)
(39 40)
(38 41)
(42 39)
(43 44)
(41 43)
(44 45)
(45 46)
(46 47)
(47 48)
(48 42)
(40 49)
(49 50)
(51 37)
(50 52)
(53 51)
(52 54)
(55 53)
(54 56)
(57 55)
(56 58)
(59 57)
(58 60)
(61 59)
(60 62)
(63 61)
(64 63)
(62 65)
(66 64)
(67 68)
(68 69)
(65 70)
(70 71)
(72 66)
(71 67)
(73 72)
(69 73)
(74 75)
(76 77)
(75 78)
(79 76)
(80 81)
(78 80)
(81 82)
(82 83)
(83 84)
(84 85)
(85 79)
(77 86)
(86 87)
(88 74)
(87 89)
(90 88)
(89 91)
(92 90)
(91 93)
(94 92)
(93 95)
(96 94)
(95 97)
(98 96)
(97 99)
(100 98)
(101 100)
(99 102)
(103 101)
(104 105)
(105 106)
(102 107)
(107 108)
(109 103)
(108 104)
(110 109)
(106 110)
(111 112)
(113 114)
(112 115)
(116 113)
(117 118)
(115 117)
(118 119)
(119 120)
(120 121)
(121 122)
(122 116)
(114 123)
(123 124)
(125 111)
(124 126)
(127 125)
(126 128)
(129 127)
(128 130)
(131 129)
(130 132)
(133 131)
(132 134)
(135 133)
(134 136)
(137 135)
(138 137)
(136 139)
(140 138)
(141 142)
(142 143)
(139 144)
(144 145)
(146 140)
(145 141)
(147 146)
(143 147)
(148 149)
(150 151)
(149 152)
(153 150)
(154 155)
(152 154)
(155 156)
(156 157)
(157 158)
(158 159)
(159 153)
(151 160)
(160 161)
(162 148)
(161 163)
(164 162)
(163 165)
(166 164)
(165 167)
(168 166)
(167 169)
(170 168)
(169 171)
(172 170)
(171 173)
(174 172)
(175 174)
(173 176)
(177 175)
(178 179)
(179 180)
(176 181)
(181 182)
(183 177)
(182 178)
(184 183)
(180 184)
(185 186)
(187 188)
(186 189)
(190 187)
(191 192)
(189 191)
(192 193)
(193 194)
(194 195)
(195 196)
(196 190)
(188 197)
(197 198)
(199 185)
(198 200)
(201 199)
(200 202)
(203 201)
(202 204)
(205 203)
(204 206)
(207 205)
(206 208)
(209 207)
(208 210)
(211 209)
(212 211)
(210 213)
(214 212)
(215 216)
(216 217)
(213 218)
(218 219)
(220 214)
(219 215)
(221 220)
(217 221)
)

// * * * * * * * * * * * * * * * * * * * * * * * * * * * * * * * * * * * * * //


// ************************************************************************* //
