/*--------------------------------*- C++ -*----------------------------------*\
| =========                 |                                                 |
| \\      /  F ield         | OpenFOAM: The Open Source CFD Toolbox           |
|  \\    /   O peration     | Version:  v2206                                 |
|   \\  /    A nd           | Website:  www.openfoam.com                      |
|    \\/     M anipulation  |                                                 |
\*---------------------------------------------------------------------------*/
FoamFile
{
    version     2.0;
    format      ascii;
    class       dictionary;
    object      snappyHexMeshDict;
}
// * * * * * * * * * * * * * * * * * * * * * * * * * * * * * * * * * * * * * //

castellatedMesh true;
snap            true;
addLayers       false;

geometry
{
    AMI.stl{ type triSurfaceMesh; name AMI;}
    prop.stl{ type triSurfaceMesh; name prop;}
    Inlet.stl{ type triSurfaceMesh; name Inlet;}
    Outlet.stl{ type triSurfaceMesh; name Outlet;}
    Side1.stl{ type triSurfaceMesh; name Side1;}
    Side2.stl{ type triSurfaceMesh; name Side2;}
    top.stl{ type triSurfaceMesh; name top;}
    bottom.stl{ type triSurfaceMesh; name bottom;}
}

castellatedMeshControls
{
    maxLocalCells 100000;
    maxGlobalCells 8000000;
    minRefinementCells 0;
    maxLoadUnbalance 0.10;
    nCellsBetweenLevels 4;

    features
    (
        { file "AMI.eMesh"; level 2;} // Note: better: 3
	{ file "prop.eMesh"; level 2;} // Note: better: level 3
    );

    refinementSurfaces
    {
      AMI
        {
            level (2 2); // Note: better: levels 3 3
            faceType boundary;
            cellZone rotatingZone;
            faceZone rotatingZone;
            cellZoneInside inside;
        }
	prop
	  { level (2 2);} // Note: better: levels 3 3
    }

    resolveFeatureAngle 30;

    refinementRegions
    {
        // Note: for better mesh quality utilize this refinement region
        // AMI{ mode inside; levels ((1E15 3));}
    }

    locationInMesh (5 5 1.5);
    allowFreeStandingZoneFaces false;
}

snapControls
{
    nSmoothPatch 3;
    tolerance 4.0;
    nSolveIter 300;
    nRelaxIter 5;
    nFeatureSnapIter 10;
    implicitFeatureSnap true;
    explicitFeatureSnap false;
    q
	    multiRegionFeatureSnap true;
}

addLayersControls
{
    relativeSizes true;

    layers
    {
    }

    expansionRatio 1.0;
    finalLayerThickness 0.3;
    minThickness 0.1;
    nGrow 0;
    featureAngle 30;
    nRelaxIter 3;
    nSmoothSurfaceNormals 1;
    nSmoothNormals 3;
    nSmoothThickness 10;
    maxFaceThicknessRatio 0.5;
    maxThicknessToMedialRatio 0.3;
    minMedialAxisAngle 90;
    nBufferCellsNoExtrude 0;
    nLayerIter 50;
}

meshQualityControls
{
    maxNonOrtho 65;
    maxBoundarySkewness 10;
    maxInternalSkewness 2;
    maxConcave 80;
    minVol 1e-13;
    minTetQuality -1;
    minArea -1;
    minTwist 0.01;
    minDeterminant 0.001;
    minFaceWeight 0.05;
    minVolRatio 0.01;
    minTriangleTwist -1;
    nSmoothScale 4;
    errorReduction 0.75;
    relaxed
    {
        maxNonOrtho 70;
    }
}

mergeTolerance 1e-6;


// ************************************************************************* //
